nrt/data/GridFormingConverters/SystemStudy/fic_IIDM.xml
<?xml version="1.0" encoding="UTF-8"?>
<iidm:network xmlns:iidm="http://www.powsybl.org/schema/iidm/1_5" xmlns:gapc="http://www.itesla_project.eu/schema/iidm/ext/generator_active_power_control/1_0" xmlns:sa="http://www.itesla_project.eu/schema/iidm/ext/standby_automaton/1_0" id="Ete2030_GFM" caseDate="2025-04-10T15:13:00+02:00" forecastDistance="0" sourceFormat="NF">
    <iidm:substation id="0TREG" country="FR" tso="RTE">
        <iidm:voltageLevel id="0TREGP3" nominalV="63" topologyKind="BUS_BREAKER">
            <iidm:busBreakerTopology>
                <iidm:bus id="0TREGP31" v="65.110130310058594" angle="-2.3491581876612604"/>
            </iidm:busBreakerTopology>
            <iidm:generator id="0TREGP3-GFM" energySource="WIND" minP="0" maxP="75" voltageRegulatorOn="false" targetP="0.10000000149011612" targetQ="0" connectableBus="0TREGP31" p="-0" q="-0">
                <iidm:reactiveCapabilityCurve>
                    <iidm:point p="0" minQ="-75" maxQ="75"/>
                    <iidm:point p="75" minQ="-75" maxQ="75"/>
                </iidm:reactiveCapabilityCurve>
            </iidm:generator>
        </iidm:voltageLevel>
    </iidm:substation>
    <iidm:substation id="MARTY" country="FR" tso="RTE">
        <iidm:voltageLevel id="1MARTP7" nominalV="380" topologyKind="BUS_BREAKER">
            <iidm:busBreakerTopology>
                <iidm:bus id="1MARTP71" v="408.44049072265625" angle="1.3375095212215822"/>
            </iidm:busBreakerTopology>
            <iidm:load id="MARTYY711" loadType="UNDEFINED" p0="0.076624716963773223" q0="69.982318294421077" bus="1MARTP71" connectableBus="1MARTP71" p="0.076624716963773223" q="69.982318294421077"/>
        </iidm:voltageLevel>
        <iidm:voltageLevel id="2MARTP7" nominalV="380" topologyKind="BUS_BREAKER">
            <iidm:busBreakerTopology>
                <iidm:bus id="2MARTP71" v="406.75601196289062" angle="1.7047962203715536"/>
            </iidm:busBreakerTopology>
            <iidm:load id="MARTYY712" loadType="UNDEFINED" p0="0.075058540265525484" q0="69.243573799895998" bus="2MARTP71" connectableBus="2MARTP71" p="0.075058540265525484" q="69.243573799895998"/>
        </iidm:voltageLevel>
        <iidm:voltageLevel id="MARTYP6" nominalV="225" topologyKind="BUS_BREAKER">
            <iidm:busBreakerTopology>
                <iidm:bus id="MARTYP61" v="239.21923828125" angle="2.5334813011412214"/>
            </iidm:busBreakerTopology>
            <iidm:generator id="MARTYP6-GFM" energySource="WIND" minP="0" maxP="250" voltageRegulatorOn="false" targetP="0.10000000149011612" targetQ="0" bus="MARTYP61" connectableBus="MARTYP61" p="-0.10000000149011613" q="-6.7762635780344027e-19">
                <iidm:reactiveCapabilityCurve>
                    <iidm:point p="0" minQ="-250" maxQ="250"/>
                    <iidm:point p="250" minQ="-250" maxQ="250"/>
                </iidm:reactiveCapabilityCurve>
            </iidm:generator>
            <iidm:shunt id="MARTY6REAC.1" sectionCount="1" voltageRegulatorOn="false" bus="MARTYP61" connectableBus="MARTYP61" q="90.4309629650338">
                <iidm:shuntLinearModel bPerSection="-0.0015802469570189714" maximumSectionCount="1"/>
            </iidm:shunt>
            <iidm:shunt id="MARTY6REAC" sectionCount="1" voltageRegulatorOn="false" bus="MARTYP61" connectableBus="MARTYP61" q="90.4309629650338">
                <iidm:shuntLinearModel bPerSection="-0.0015802469570189714" maximumSectionCount="1"/>
            </iidm:shunt>
        </iidm:voltageLevel>
        <iidm:voltageLevel id="MARTYP7" nominalV="380" topologyKind="BUS_BREAKER">
            <iidm:busBreakerTopology>
                <iidm:bus id="MARTYP71" v="400.00369262695312" angle="5.5487918939786454"/>
            </iidm:busBreakerTopology>
            <iidm:load id="CELTIC" loadType="UNDEFINED" p0="-688.04801723108699" q0="207.89536742316724" bus="MARTYP71" connectableBus="MARTYP71" p="-688.04801723108699" q="207.89536742316724"/>
        </iidm:voltageLevel>
        <iidm:twoWindingsTransformer id="MARTYY761" r="0.21000027656555176" x="-16.200000762939453" g="0" b="0" ratedU1="225" ratedU2="380" bus1="MARTYP61" connectableBus1="MARTYP61" voltageLevelId1="MARTYP6" bus2="1MARTP71" connectableBus2="1MARTP71" voltageLevelId2="1MARTP7" p1="-213.73106246261847" q1="134.10791679974389" p2="213.81344710309961" q2="-140.46329528055645">
            <iidm:ratioTapChanger lowTapPosition="0" tapPosition="0" loadTapChangingCapabilities="false">
                <iidm:step r="0" x="0" g="0" b="0" rho="0.99711000919342041"/>
                <iidm:step r="0" x="0" g="0" b="0" rho="0.95723998546600342"/>
                <iidm:step r="0" x="0" g="0" b="0" rho="0.91479998826980591"/>
            </iidm:ratioTapChanger>
        </iidm:twoWindingsTransformer>
        <iidm:twoWindingsTransformer id="MARTYY771" r="0.27999991178512573" x="55.999973297119141" g="0" b="0" ratedU1="380" ratedU2="380" bus1="MARTYP71" connectableBus1="MARTYP71" voltageLevelId1="MARTYP7" bus2="1MARTP71" connectableBus2="1MARTP71" voltageLevelId2="1MARTP7" p1="213.97519539695753" q1="-53.456264361729822" p2="-213.89007182006387" q2="70.480976986130941">
            <iidm:ratioTapChanger lowTapPosition="0" tapPosition="0" loadTapChangingCapabilities="false">
                <iidm:step r="0" x="0" g="0" b="0" rho="1"/>
            </iidm:ratioTapChanger>
        </iidm:twoWindingsTransformer>
        <iidm:twoWindingsTransformer id="MARTYY762" r="0.1999993622303009" x="-11.099998474121094" g="0" b="0" ratedU1="225" ratedU2="380" bus1="MARTYP61" connectableBus1="MARTYP61" voltageLevelId1="MARTYP6" bus2="2MARTP71" connectableBus2="2MARTP71" voltageLevelId2="2MARTP7" p1="-215.93259016953246" q1="127.85657477063377" p2="216.01010716090667" q2="-132.15878091956725">
            <iidm:ratioTapChanger lowTapPosition="0" tapPosition="0" loadTapChangingCapabilities="false">
                <iidm:step r="0" x="0" g="0" b="0" rho="0.99769997596740723"/>
                <iidm:step r="0" x="0" g="0" b="0" rho="0.95723998546600342"/>
                <iidm:step r="0" x="0" g="0" b="0" rho="0.91479998826980591"/>
            </iidm:ratioTapChanger>
        </iidm:twoWindingsTransformer>
        <iidm:twoWindingsTransformer id="MARTYY772" r="0.27000007033348083" x="50.400001525878906" g="0" b="0" ratedU1="380" ratedU2="380" bus1="MARTYP71" connectableBus1="MARTYP71" voltageLevelId1="MARTYP7" bus2="2MARTP71" connectableBus2="2MARTP71" voltageLevelId2="2MARTP7" p1="216.16782372107096" q1="-47.485713624127094" p2="-216.0851657011726" q2="62.915207119662021">
            <iidm:ratioTapChanger lowTapPosition="0" tapPosition="0" loadTapChangingCapabilities="false">
                <iidm:step r="0" x="0" g="0" b="0" rho="1"/>
            </iidm:ratioTapChanger>
        </iidm:twoWindingsTransformer>
    </iidm:substation>
    <iidm:substation id="DOMLO" country="FR" tso="RTE">
        <iidm:voltageLevel id="4DOMLP7" nominalV="380" topologyKind="BUS_BREAKER">
            <iidm:busBreakerTopology>
                <iidm:bus id="4DOMLP71" v="404.53021240234375" angle="-3.1056116700805161"/>
            </iidm:busBreakerTopology>
            <iidm:load id="DOMLOY714" loadType="UNDEFINED" p0="0.074418621749241007" q0="68.569906643572537" bus="4DOMLP71" connectableBus="4DOMLP71" p="0.074418621749241007" q="68.569906643572537"/>
        </iidm:voltageLevel>
        <iidm:voltageLevel id="5DOMLP7" nominalV="380" topologyKind="BUS_BREAKER">
            <iidm:busBreakerTopology>
                <iidm:bus id="5DOMLP71" v="405.3209228515625" angle="-2.9999627308855819"/>
            </iidm:busBreakerTopology>
            <iidm:load id="DOMLOY715" loadType="UNDEFINED" p0="0.14445267303907466" q0="68.754476317205047" bus="5DOMLP71" connectableBus="5DOMLP71" p="0.14445267303907466" q="68.754476317205047"/>
        </iidm:voltageLevel>
        <iidm:voltageLevel id="DOMLOP4" nominalV="90" topologyKind="BUS_BREAKER">
            <iidm:busBreakerTopology>
                <iidm:bus id="DOMLOP41" v="94.098312377929688" angle="-3.4077004783430134"/>
            </iidm:busBreakerTopology>
            <iidm:generator id="DOMLOP4-GFM" energySource="WIND" minP="0" maxP="75" voltageRegulatorOn="false" targetP="0.10000000149011612" targetQ="0" connectableBus="DOMLOP41" p="-0" q="-0">
                <iidm:reactiveCapabilityCurve>
                    <iidm:point p="0" minQ="-75" maxQ="75"/>
                    <iidm:point p="75" minQ="-75" maxQ="75"/>
                </iidm:reactiveCapabilityCurve>
            </iidm:generator>
            <iidm:load id="DOMLOL41VITRE" loadType="UNDEFINED" p0="1.1865675227623294" q0="-13.472432035439741" bus="DOMLOP41" connectableBus="DOMLOP41" p="1.1865675227623294" q="-13.472432035439741"/>
            <iidm:shunt id="DOMLO4COND.11" sectionCount="1" voltageRegulatorOn="false" connectableBus="DOMLOP41" q="-0">
                <iidm:shuntLinearModel bPerSection="0.0037037034053355455" maximumSectionCount="1"/>
            </iidm:shunt>
        </iidm:voltageLevel>
        <iidm:voltageLevel id="DOMLOP6" nominalV="225" topologyKind="BUS_BREAKER">
            <iidm:busBreakerTopology>
                <iidm:bus id="DOMLOP61" v="238.97003173828125" angle="-2.6909916532606504"/>
            </iidm:busBreakerTopology>
            <iidm:generator id="DOMLOP6-GFM" energySource="WIND" minP="0" maxP="250" voltageRegulatorOn="false" targetP="0.10000000149011612" targetQ="0" connectableBus="DOMLOP61" p="-0" q="-0">
                <iidm:reactiveCapabilityCurve>
                    <iidm:point p="0" minQ="-250" maxQ="250"/>
                    <iidm:point p="250" minQ="-250" maxQ="250"/>
                </iidm:reactiveCapabilityCurve>
            </iidm:generator>
            <iidm:shunt id="DOMLO6COND.11" sectionCount="1" voltageRegulatorOn="false" connectableBus="DOMLOP61" q="-0">
                <iidm:shuntLinearModel bPerSection="0.0015802469570189714" maximumSectionCount="1"/>
            </iidm:shunt>
            <iidm:shunt id="DOMLO6COND.21" sectionCount="1" voltageRegulatorOn="false" connectableBus="DOMLOP61" q="-0">
                <iidm:property name="VECTCodeOITransfoDistrib" value="F.COM-Y412"/>
                <iidm:shuntLinearModel bPerSection="0.0015802469570189714" maximumSectionCount="1"/>
            </iidm:shunt>
            <iidm:staticVarCompensator id="CSPDO.TC1" bMin="-0.0049382718279957771" bMax="0.0049382718279957771" voltageSetpoint="235" reactivePowerSetpoint="0" regulationMode="VOLTAGE" bus="DOMLOP61" connectableBus="DOMLOP61" p="0" q="281.96775828273877"/>
        </iidm:voltageLevel>
        <iidm:voltageLevel id="DOMLOP7" nominalV="380" topologyKind="BUS_BREAKER">
            <iidm:busBreakerTopology>
                <iidm:bus id="DOMLOP71" v="405.66806030273438" angle="-1.1341151321967706"/>
            </iidm:busBreakerTopology>
            <iidm:load id="DOMLOL71OUDON" loadType="UNDEFINED" p0="0" q0="0" connectableBus="DOMLOP71" p="0" q="0"/>
            <iidm:load id="DOMLOL72OUDON" loadType="UNDEFINED" p0="-251.15843585386321" q0="-148.04915840166615" bus="DOMLOP71" connectableBus="DOMLOP71" p="-251.15843585386321" q="-148.04915840166615"/>
        </iidm:voltageLevel>
        <iidm:twoWindingsTransformer id="DOMLOY764" r="0.22999998927116394" x="-10.300002098083496" g="0" b="0" ratedU1="225" ratedU2="380" bus1="DOMLOP61" connectableBus1="DOMLOP61" voltageLevelId1="DOMLOP6" bus2="4DOMLP71" connectableBus2="4DOMLP71" voltageLevelId2="4DOMLP7" p1="-115.86247823968343" q1="60.623233289032555" p2="115.88670545171087" q2="-61.708191316653149">
            <iidm:ratioTapChanger lowTapPosition="0" tapPosition="0" loadTapChangingCapabilities="false">
                <iidm:step r="0" x="0" g="0" b="0" rho="0.99829000234603882"/>
                <iidm:step r="0" x="0" g="0" b="0" rho="0.95723998546600342"/>
                <iidm:step r="0" x="0" g="0" b="0" rho="0.91421002149581909"/>
            </iidm:ratioTapChanger>
        </iidm:twoWindingsTransformer>
        <iidm:twoWindingsTransformer id="DOMLOY774" r="0.25" x="48.700000762939453" g="0" b="0" ratedU1="380" ratedU2="380" bus1="DOMLOP71" connectableBus1="DOMLOP71" voltageLevelId1="DOMLOP7" bus2="4DOMLP71" connectableBus2="4DOMLP71" voltageLevelId2="4DOMLP7" p1="115.98173895796451" q1="10.877494891307501" p2="-115.96112407346001" q2="-6.8617153269209989">
            <iidm:ratioTapChanger lowTapPosition="0" tapPosition="0" loadTapChangingCapabilities="false">
                <iidm:step r="0" x="0" g="0" b="0" rho="1"/>
            </iidm:ratioTapChanger>
        </iidm:twoWindingsTransformer>
        <iidm:twoWindingsTransformer id="DOMLOY765" r="0.39999935030937195" x="-8.100001335144043" g="0" b="0" ratedU1="225" ratedU2="380" bus1="DOMLOP61" connectableBus1="DOMLOP61" voltageLevelId1="DOMLOP6" bus2="5DOMLP71" connectableBus2="5DOMLP71" voltageLevelId2="5DOMLP7" p1="-112.28612184967237" q1="66.99374272635005" p2="112.32804947359244" q2="-67.842778629705847">
            <iidm:ratioTapChanger lowTapPosition="0" tapPosition="0" loadTapChangingCapabilities="false">
                <iidm:step r="0" x="0" g="0" b="0" rho="1.0006599426269531"/>
                <iidm:step r="0" x="0" g="0" b="0" rho="0.95723998546600342"/>
                <iidm:step r="0" x="0" g="0" b="0" rho="0.91598999500274658"/>
            </iidm:ratioTapChanger>
        </iidm:twoWindingsTransformer>
        <iidm:twoWindingsTransformer id="DOMLOY775" r="0.090000003576278687" x="47.599994659423828" g="0" b="0" ratedU1="380" ratedU2="380" bus1="DOMLOP71" connectableBus1="DOMLOP71" voltageLevelId1="DOMLOP7" bus2="5DOMLP71" connectableBus2="5DOMLP71" voltageLevelId2="5DOMLP7" p1="112.47943266484961" q1="4.5771712110064842" p2="-112.47250214663036" q2="-0.91169768750457503">
            <iidm:ratioTapChanger lowTapPosition="0" tapPosition="0" loadTapChangingCapabilities="false">
                <iidm:step r="0" x="0" g="0" b="0" rho="1"/>
            </iidm:ratioTapChanger>
        </iidm:twoWindingsTransformer>
        <iidm:twoWindingsTransformer id="DOMLOY641" r="1.6000000238418579" x="58.299999237060547" g="0" b="0" ratedU1="90" ratedU2="225" bus1="DOMLOP41" connectableBus1="DOMLOP41" voltageLevelId1="DOMLOP4" bus2="DOMLOP61" connectableBus2="DOMLOP61" voltageLevelId2="DOMLOP6" p1="-11.62108712159278" q1="40.663561704538374" p2="11.667459094368555" q2="-38.973882993810804">
            <iidm:ratioTapChanger lowTapPosition="0" tapPosition="0" targetDeadband="0" loadTapChangingCapabilities="true" regulating="true" targetV="94.500007629394531">
                <iidm:terminalRef id="DOMLOY641" side="ONE"/>
                <iidm:step r="0" x="0" g="0" b="0" rho="1.0559999942779541"/>
                <iidm:step r="0" x="0" g="0" b="0" rho="1.0467100143432617"/>
                <iidm:step r="0" x="0" g="0" b="0" rho="1.0374200344085693"/>
                <iidm:step r="0" x="0" g="0" b="0" rho="1.028130054473877"/>
                <iidm:step r="0" x="0" g="0" b="0" rho="1.018839955329895"/>
                <iidm:step r="0" x="0" g="0" b="0" rho="1.0095599889755249"/>
                <iidm:step r="0" x="0" g="0" b="0" rho="1.0002700090408325"/>
                <iidm:step r="0" x="0" g="0" b="0" rho="0.99098002910614014"/>
                <iidm:step r="0" x="0" g="0" b="0" rho="0.98168998956680298"/>
                <iidm:step r="0" x="0" g="0" b="0" rho="0.9724000096321106"/>
                <iidm:step r="0" x="0" g="0" b="0" rho="0.96311002969741821"/>
                <iidm:step r="0" x="0" g="0" b="0" rho="0.95381999015808105"/>
                <iidm:step r="0" x="0" g="0" b="0" rho="0.94453001022338867"/>
                <iidm:step r="0" x="0" g="0" b="0" rho="0.93523997068405151"/>
                <iidm:step r="0" x="0" g="0" b="0" rho="0.9259600043296814"/>
                <iidm:step r="0" x="0" g="0" b="0" rho="0.91667002439498901"/>
                <iidm:step r="0" x="0" g="0" b="0" rho="0.90755999088287354"/>
                <iidm:step r="0" x="0" g="0" b="0" rho="0.89844000339508057"/>
                <iidm:step r="0" x="0" g="0" b="0" rho="0.88933002948760986"/>
                <iidm:step r="0" x="0" g="0" b="0" rho="0.88021999597549438"/>
                <iidm:step r="0" x="0" g="0" b="0" rho="0.87111002206802368"/>
                <iidm:step r="0" x="0" g="0" b="0" rho="0.8619999885559082"/>
                <iidm:step r="0" x="0" g="0" b="0" rho="0.8528900146484375"/>
                <iidm:step r="0" x="0" g="0" b="0" rho="0.84377998113632202"/>
                <iidm:step r="0" x="0" g="0" b="0" rho="0.83467000722885132"/>
                <iidm:step r="0" x="0" g="0" b="0" rho="0.82555997371673584"/>
                <iidm:step r="0" x="0" g="0" b="0" rho="0.81643998622894287"/>
                <iidm:step r="0" x="0" g="0" b="0" rho="0.80733001232147217"/>
                <iidm:step r="0" x="0" g="0" b="0" rho="0.79821997880935669"/>
                <iidm:step r="0" x="0" g="0" b="0" rho="0.78911000490188599"/>
                <iidm:step r="0" x="0" g="0" b="0" rho="0.77999997138977051"/>
            </iidm:ratioTapChanger>
        </iidm:twoWindingsTransformer>
        <iidm:twoWindingsTransformer id="DOMLOY642" r="1.5399982929229736" x="59.599998474121094" g="0" b="0" ratedU1="90" ratedU2="225" bus1="DOMLOP41" connectableBus1="DOMLOP41" voltageLevelId1="DOMLOP4" bus2="DOMLOP61" connectableBus2="DOMLOP61" voltageLevelId2="DOMLOP6" p1="-10.54507796924044" q1="99.651541760009351" p2="10.77105853972706" q2="-90.905790730233733">
            <iidm:ratioTapChanger lowTapPosition="0" tapPosition="0" targetDeadband="0" loadTapChangingCapabilities="true" regulating="true" targetV="94.500007629394531">
                <iidm:terminalRef id="DOMLOY642" side="ONE"/>
                <iidm:step r="0" x="0" g="0" b="0" rho="1.1119999885559082"/>
                <iidm:step r="0" x="0" g="0" b="0" rho="1.0999799966812134"/>
                <iidm:step r="0" x="0" g="0" b="0" rho="1.0879600048065186"/>
                <iidm:step r="0" x="0" g="0" b="0" rho="1.0759400129318237"/>
                <iidm:step r="0" x="0" g="0" b="0" rho="1.0639100074768066"/>
                <iidm:step r="0" x="0" g="0" b="0" rho="1.0518900156021118"/>
                <iidm:step r="0" x="0" g="0" b="0" rho="1.039870023727417"/>
                <iidm:step r="0" x="0" g="0" b="0" rho="1.0278500318527222"/>
                <iidm:step r="0" x="0" g="0" b="0" rho="1.0158300399780273"/>
                <iidm:step r="0" x="0" g="0" b="0" rho="1.0038100481033325"/>
                <iidm:step r="0" x="0" g="0" b="0" rho="0.99177998304367065"/>
                <iidm:step r="0" x="0" g="0" b="0" rho="0.97975999116897583"/>
                <iidm:step r="0" x="0" g="0" b="0" rho="0.96773999929428101"/>
                <iidm:step r="0" x="0" g="0" b="0" rho="0.95576000213623047"/>
                <iidm:step r="0" x="0" g="0" b="0" rho="0.94378000497817993"/>
                <iidm:step r="0" x="0" g="0" b="0" rho="0.93181002140045166"/>
                <iidm:step r="0" x="0" g="0" b="0" rho="0.91983002424240112"/>
                <iidm:step r="0" x="0" g="0" b="0" rho="0.90785002708435059"/>
                <iidm:step r="0" x="0" g="0" b="0" rho="0.89586997032165527"/>
                <iidm:step r="0" x="0" g="0" b="0" rho="0.88388997316360474"/>
                <iidm:step r="0" x="0" g="0" b="0" rho="0.8719099760055542"/>
                <iidm:step r="0" x="0" g="0" b="0" rho="0.85993999242782593"/>
                <iidm:step r="0" x="0" g="0" b="0" rho="0.84795999526977539"/>
                <iidm:step r="0" x="0" g="0" b="0" rho="0.83597999811172485"/>
                <iidm:step r="0" x="0" g="0" b="0" rho="0.82400000095367432"/>
            </iidm:ratioTapChanger>
        </iidm:twoWindingsTransformer>
        <iidm:twoWindingsTransformer id="DOMLOY643" r="1.970000147819519" x="56.400001525878906" g="0" b="0" ratedU1="90" ratedU2="225" bus1="DOMLOP41" connectableBus1="DOMLOP41" voltageLevelId1="DOMLOP4" bus2="DOMLOP61" connectableBus2="DOMLOP61" voltageLevelId2="DOMLOP6" p1="-10.183765963800768" q1="105.37330131979054" p2="10.506401136595606" q2="-96.136436917484261">
            <iidm:ratioTapChanger lowTapPosition="0" tapPosition="0" targetDeadband="0" loadTapChangingCapabilities="true" regulating="true" targetV="94.500007629394531">
                <iidm:terminalRef id="DOMLOY643" side="ONE"/>
                <iidm:step r="0" x="0" g="0" b="0" rho="1.1119999885559082"/>
                <iidm:step r="0" x="0" g="0" b="0" rho="1.0999799966812134"/>
                <iidm:step r="0" x="0" g="0" b="0" rho="1.0879600048065186"/>
                <iidm:step r="0" x="0" g="0" b="0" rho="1.0759400129318237"/>
                <iidm:step r="0" x="0" g="0" b="0" rho="1.0639100074768066"/>
                <iidm:step r="0" x="0" g="0" b="0" rho="1.0518900156021118"/>
                <iidm:step r="0" x="0" g="0" b="0" rho="1.039870023727417"/>
                <iidm:step r="0" x="0" g="0" b="0" rho="1.0278500318527222"/>
                <iidm:step r="0" x="0" g="0" b="0" rho="1.0158300399780273"/>
                <iidm:step r="0" x="0" g="0" b="0" rho="1.0038100481033325"/>
                <iidm:step r="0" x="0" g="0" b="0" rho="0.99177998304367065"/>
                <iidm:step r="0" x="0" g="0" b="0" rho="0.97975999116897583"/>
                <iidm:step r="0" x="0" g="0" b="0" rho="0.96773999929428101"/>
                <iidm:step r="0" x="0" g="0" b="0" rho="0.95576000213623047"/>
                <iidm:step r="0" x="0" g="0" b="0" rho="0.94378000497817993"/>
                <iidm:step r="0" x="0" g="0" b="0" rho="0.93181002140045166"/>
                <iidm:step r="0" x="0" g="0" b="0" rho="0.91983002424240112"/>
                <iidm:step r="0" x="0" g="0" b="0" rho="0.90785002708435059"/>
                <iidm:step r="0" x="0" g="0" b="0" rho="0.89586997032165527"/>
                <iidm:step r="0" x="0" g="0" b="0" rho="0.88388997316360474"/>
                <iidm:step r="0" x="0" g="0" b="0" rho="0.8719099760055542"/>
                <iidm:step r="0" x="0" g="0" b="0" rho="0.85993999242782593"/>
                <iidm:step r="0" x="0" g="0" b="0" rho="0.84795999526977539"/>
                <iidm:step r="0" x="0" g="0" b="0" rho="0.83597999811172485"/>
                <iidm:step r="0" x="0" g="0" b="0" rho="0.82400000095367432"/>
            </iidm:ratioTapChanger>
        </iidm:twoWindingsTransformer>
        <iidm:twoWindingsTransformer id="DOMLOY741" r="1.9579999446868896" x="144.02000427246094" g="0" b="0" ratedU1="90" ratedU2="380" bus1="DOMLOP41" connectableBus1="DOMLOP41" voltageLevelId1="DOMLOP4" bus2="DOMLOP71" connectableBus2="DOMLOP71" voltageLevelId2="DOMLOP7" p1="-39.683392184676357" q1="-162.41852042233162" p2="40.170047150486589" q2="198.21425700822323">
            <iidm:ratioTapChanger lowTapPosition="0" tapPosition="24" targetDeadband="0" loadTapChangingCapabilities="true" regulating="true" targetV="94.500007629394531">
                <iidm:terminalRef id="DOMLOY741" side="ONE"/>
                <iidm:step r="0" x="0" g="0" b="0" rho="1.0743199586868286"/>
                <iidm:step r="0" x="0" g="0" b="0" rho="1.0647200345993042"/>
                <iidm:step r="0" x="0" g="0" b="0" rho="1.0551300048828125"/>
                <iidm:step r="0" x="0" g="0" b="0" rho="1.0455399751663208"/>
                <iidm:step r="0" x="0" g="0" b="0" rho="1.0359499454498291"/>
                <iidm:step r="0" x="0" g="0" b="0" rho="1.026360034942627"/>
                <iidm:step r="0" x="0" g="0" b="0" rho="1.016759991645813"/>
                <iidm:step r="0" x="0" g="0" b="0" rho="1.0071699619293213"/>
                <iidm:step r="0" x="0" g="0" b="0" rho="0.99757999181747437"/>
                <iidm:step r="0" x="0" g="0" b="0" rho="0.98799002170562744"/>
                <iidm:step r="0" x="0" g="0" b="0" rho="0.97838997840881348"/>
                <iidm:step r="0" x="0" g="0" b="0" rho="0.96880000829696655"/>
                <iidm:step r="0" x="0" g="0" b="0" rho="0.95920997858047485"/>
                <iidm:step r="0" x="0" g="0" b="0" rho="0.94962000846862793"/>
                <iidm:step r="0" x="0" g="0" b="0" rho="0.94002997875213623"/>
                <iidm:step r="0" x="0" g="0" b="0" rho="0.93042999505996704"/>
                <iidm:step r="0" x="0" g="0" b="0" rho="0.92084002494812012"/>
                <iidm:step r="0" x="0" g="0" b="0" rho="0.91124999523162842"/>
                <iidm:step r="0" x="0" g="0" b="0" rho="0.90166002511978149"/>
                <iidm:step r="0" x="0" g="0" b="0" rho="0.89206999540328979"/>
                <iidm:step r="0" x="0" g="0" b="0" rho="0.88247001171112061"/>
                <iidm:step r="0" x="0" g="0" b="0" rho="0.87287998199462891"/>
                <iidm:step r="0" x="0" g="0" b="0" rho="0.86329001188278198"/>
                <iidm:step r="0" x="0" g="0" b="0" rho="0.85369998216629028"/>
                <iidm:step r="0" x="0" g="0" b="0" rho="0.84411001205444336"/>
            </iidm:ratioTapChanger>
        </iidm:twoWindingsTransformer>
    </iidm:substation>
    <iidm:substation id="ABERS" country="FR" tso="RTE">
        <iidm:voltageLevel id="ABERSP3" nominalV="63" topologyKind="BUS_BREAKER">
            <iidm:busBreakerTopology>
                <iidm:bus id="ABERSP31" v="65.757560729980469" angle="0.76955645328998468"/>
            </iidm:busBreakerTopology>
            <iidm:generator id="ABERSIN1" energySource="WIND" minP="0" maxP="0" voltageRegulatorOn="false" targetP="0" targetQ="0" connectableBus="ABERSP31" p="-0" q="-0">
                <iidm:minMaxReactiveLimits minQ="-0.0099999997764825821" maxQ="0.0099999997764825821"/>
            </iidm:generator>
            <iidm:generator id="ABERSINF" energySource="SOLAR" minP="0" maxP="0" voltageRegulatorOn="false" targetP="0" targetQ="0" connectableBus="ABERSP31" p="-0" q="-0">
                <iidm:minMaxReactiveLimits minQ="-0.0099999997764825821" maxQ="0.0099999997764825821"/>
            </iidm:generator>
            <iidm:generator id="ABERSP3_COGE_ES" energySource="OTHER" minP="0" maxP="6" voltageRegulatorOn="false" targetP="0.60000002384185791" targetQ="0" bus="ABERSP31" connectableBus="ABERSP31" p="-0.60000002384185791" q="0">
                <iidm:reactiveCapabilityCurve>
                    <iidm:point p="0" minQ="-0.0099999997764825821" maxQ="0.0099999997764825821"/>
                    <iidm:point p="6" minQ="-0.0099999997764825821" maxQ="0.0099999997764825821"/>
                </iidm:reactiveCapabilityCurve>
            </iidm:generator>
            <iidm:generator id="ABERSP3_PV_CHG" energySource="SOLAR" minP="0" maxP="0" voltageRegulatorOn="false" targetP="0" targetQ="0" connectableBus="ABERSP31" p="-0" q="-0">
                <iidm:minMaxReactiveLimits minQ="-0.0099999997764825821" maxQ="0.0099999997764825821"/>
            </iidm:generator>
            <iidm:generator id="ABERSP3_EOL_CHG" energySource="WIND" minP="0" maxP="0" voltageRegulatorOn="false" targetP="0" targetQ="0" connectableBus="ABERSP31" p="-0" q="-0">
                <iidm:minMaxReactiveLimits minQ="-0.0099999997764825821" maxQ="0.0099999997764825821"/>
            </iidm:generator>
            <iidm:generator id="ABERSP3_EOL" energySource="SOLAR" minP="0" maxP="12.269146919250488" voltageRegulatorOn="false" targetP="1.8403720855712891" targetQ="0" bus="ABERSP31" connectableBus="ABERSP31" p="-1.8403720855712891" q="0">
                <iidm:reactiveCapabilityCurve>
                    <iidm:point p="0" minQ="0" maxQ="0"/>
                    <iidm:point p="12.269146919250488" minQ="0" maxQ="0"/>
                </iidm:reactiveCapabilityCurve>
            </iidm:generator>
            <iidm:generator id="ABERSP3_PV" energySource="SOLAR" minP="0" maxP="10.050138473510742" voltageRegulatorOn="false" targetP="1.3065179586410522" targetQ="0" bus="ABERSP31" connectableBus="ABERSP31" p="-1.306517958641052" q="2.7105054312137611e-18">
                <iidm:reactiveCapabilityCurve>
                    <iidm:point p="0" minQ="0" maxQ="0"/>
                    <iidm:point p="10.050138473510742" minQ="0" maxQ="0"/>
                </iidm:reactiveCapabilityCurve>
            </iidm:generator>
            <iidm:generator id="ABERSP3-GFM" energySource="WIND" minP="0" maxP="75" voltageRegulatorOn="false" targetP="0.10000000149011612" targetQ="0" connectableBus="ABERSP31" p="-0" q="-0">
                <iidm:reactiveCapabilityCurve>
                    <iidm:point p="0" minQ="-75" maxQ="75"/>
                    <iidm:point p="75" minQ="-75" maxQ="75"/>
                </iidm:reactiveCapabilityCurve>
            </iidm:generator>
            <iidm:load id="ABERS3311" loadType="UNDEFINED" p0="2.8999954471097289" q0="-9.2999703777912757" bus="ABERSP31" connectableBus="ABERSP31" p="2.8999954471097289" q="-9.2999703777912757">
                <iidm:property name="VECTCodeOITransfoDistrib" value="ABERS-Y311"/>
            </iidm:load>
        </iidm:voltageLevel>
    </iidm:substation>
    <iidm:substation id="ALLAI" country="FR" tso="RTE">
        <iidm:voltageLevel id="ALLAIP3" nominalV="63" topologyKind="BUS_BREAKER">
            <iidm:busBreakerTopology>
                <iidm:bus id="ALLAIP31" v="67.735595703125" angle="-1.9176667498178173"/>
            </iidm:busBreakerTopology>
            <iidm:generator id="ALLAIIN1" energySource="WIND" minP="0" maxP="0" voltageRegulatorOn="false" targetP="0" targetQ="0" connectableBus="ALLAIP31" p="-0" q="-0">
                <iidm:minMaxReactiveLimits minQ="-0.0099999997764825821" maxQ="0.0099999997764825821"/>
            </iidm:generator>
            <iidm:generator id="ALLAIINF" energySource="SOLAR" minP="0" maxP="0" voltageRegulatorOn="false" targetP="0" targetQ="0" connectableBus="ALLAIP31" p="-0" q="-0">
                <iidm:minMaxReactiveLimits minQ="-0.0099999997764825821" maxQ="0.0099999997764825821"/>
            </iidm:generator>
            <iidm:generator id="ALLAIP3_PV_CHG" energySource="SOLAR" minP="0" maxP="0" voltageRegulatorOn="false" targetP="0" targetQ="0" connectableBus="ALLAIP31" p="-0" q="-0">
                <iidm:minMaxReactiveLimits minQ="-0.0099999997764825821" maxQ="0.0099999997764825821"/>
            </iidm:generator>
            <iidm:generator id="ALLAIP3_EOL_CHG" energySource="WIND" minP="0" maxP="0" voltageRegulatorOn="false" targetP="0" targetQ="0" connectableBus="ALLAIP31" p="-0" q="-0">
                <iidm:minMaxReactiveLimits minQ="-0.0099999997764825821" maxQ="0.0099999997764825821"/>
            </iidm:generator>
            <iidm:generator id="ALLAIP3_EOL" energySource="SOLAR" minP="0" maxP="10.525082588195801" voltageRegulatorOn="false" targetP="1.578762412071228" targetQ="0" bus="ALLAIP31" connectableBus="ALLAIP31" p="-1.5787624120712285" q="1.0842021724855044e-17">
                <iidm:reactiveCapabilityCurve>
                    <iidm:point p="0" minQ="0" maxQ="0"/>
                    <iidm:point p="10.525082588195801" minQ="0" maxQ="0"/>
                </iidm:reactiveCapabilityCurve>
            </iidm:generator>
            <iidm:generator id="ALLAIP3_PV" energySource="SOLAR" minP="0" maxP="6.8236050605773926" voltageRegulatorOn="false" targetP="0.88706862926483154" targetQ="0" bus="ALLAIP31" connectableBus="ALLAIP31" p="-0.88706862926483165" q="0">
                <iidm:reactiveCapabilityCurve>
                    <iidm:point p="0" minQ="0" maxQ="0"/>
                    <iidm:point p="6.8236050605773926" minQ="0" maxQ="0"/>
                </iidm:reactiveCapabilityCurve>
            </iidm:generator>
            <iidm:generator id="ALLAIP3-GFM" energySource="WIND" minP="0" maxP="75" voltageRegulatorOn="false" targetP="0.10000000149011612" targetQ="0" connectableBus="ALLAIP31" p="-0" q="-0">
                <iidm:reactiveCapabilityCurve>
                    <iidm:point p="0" minQ="-75" maxQ="75"/>
                    <iidm:point p="75" minQ="-75" maxQ="75"/>
                </iidm:reactiveCapabilityCurve>
            </iidm:generator>
            <iidm:load id="ALLAI3311" loadType="UNDEFINED" p0="5.0999928871064109" q0="-6.2999828533252078" bus="ALLAIP31" connectableBus="ALLAIP31" p="5.0999928871064109" q="-6.2999828533252078">
                <iidm:property name="VECTCodeOITransfoDistrib" value="ALLAI-Y311"/>
            </iidm:load>
        </iidm:voltageLevel>
    </iidm:substation>
    <iidm:substation id="AMBON" country="FR" tso="RTE">
        <iidm:voltageLevel id="AMBONP3" nominalV="63" topologyKind="BUS_BREAKER">
            <iidm:busBreakerTopology>
                <iidm:bus id="AMBONP31" v="65.557884216308594" angle="-2.4787584658413135"/>
            </iidm:busBreakerTopology>
            <iidm:generator id="AMBONIN1" energySource="WIND" minP="0" maxP="0" voltageRegulatorOn="false" targetP="0" targetQ="0" connectableBus="AMBONP31" p="-0" q="-0">
                <iidm:minMaxReactiveLimits minQ="-0.0099999997764825821" maxQ="0.0099999997764825821"/>
            </iidm:generator>
            <iidm:generator id="AMBONINF" energySource="SOLAR" minP="0" maxP="0" voltageRegulatorOn="false" targetP="0" targetQ="0" connectableBus="AMBONP31" p="-0" q="-0">
                <iidm:minMaxReactiveLimits minQ="-0.0099999997764825821" maxQ="0.0099999997764825821"/>
            </iidm:generator>
            <iidm:generator id="AMBONING" energySource="SOLAR" minP="0" maxP="0" voltageRegulatorOn="false" targetP="0" targetQ="0" connectableBus="AMBONP31" p="-0" q="-0">
                <iidm:minMaxReactiveLimits minQ="-0.0099999997764825821" maxQ="0.0099999997764825821"/>
            </iidm:generator>
            <iidm:generator id="AMBONP3_PV_CHG" energySource="SOLAR" minP="0" maxP="0" voltageRegulatorOn="false" targetP="0" targetQ="0" connectableBus="AMBONP31" p="-0" q="-0">
                <iidm:minMaxReactiveLimits minQ="-0.0099999997764825821" maxQ="0.0099999997764825821"/>
            </iidm:generator>
            <iidm:generator id="AMBONP3_EOL_CHG" energySource="WIND" minP="0" maxP="0" voltageRegulatorOn="false" targetP="0" targetQ="0" connectableBus="AMBONP31" p="-0" q="-0">
                <iidm:minMaxReactiveLimits minQ="-0.0099999997764825821" maxQ="0.0099999997764825821"/>
            </iidm:generator>
            <iidm:generator id="AMBONP3_PV_ES" energySource="SOLAR" minP="0" maxP="0" voltageRegulatorOn="false" targetP="0" targetQ="0" connectableBus="AMBONP31" p="-0" q="-0">
                <iidm:minMaxReactiveLimits minQ="-0.0099999997764825821" maxQ="0.0099999997764825821"/>
            </iidm:generator>
            <iidm:generator id="AMBONP3_EOL" energySource="SOLAR" minP="0" maxP="45.044467926025391" voltageRegulatorOn="false" targetP="6.7566699981689453" targetQ="0" bus="AMBONP31" connectableBus="AMBONP31" p="-6.7566699981689462" q="0">
                <iidm:reactiveCapabilityCurve>
                    <iidm:point p="0" minQ="0" maxQ="0"/>
                    <iidm:point p="45.044467926025391" minQ="0" maxQ="0"/>
                </iidm:reactiveCapabilityCurve>
            </iidm:generator>
            <iidm:generator id="AMBONP3_PV" energySource="SOLAR" minP="0" maxP="32.599750518798828" voltageRegulatorOn="false" targetP="4.2379674911499023" targetQ="0" bus="AMBONP31" connectableBus="AMBONP31" p="-4.2379674911499015" q="0">
                <iidm:reactiveCapabilityCurve>
                    <iidm:point p="0" minQ="0" maxQ="0"/>
                    <iidm:point p="32.599750518798828" minQ="0" maxQ="0"/>
                </iidm:reactiveCapabilityCurve>
            </iidm:generator>
            <iidm:generator id="AMBONP3-GFM" energySource="WIND" minP="0" maxP="75" voltageRegulatorOn="false" targetP="0.10000000149011612" targetQ="0" connectableBus="AMBONP31" p="-0" q="-0">
                <iidm:reactiveCapabilityCurve>
                    <iidm:point p="0" minQ="-75" maxQ="75"/>
                    <iidm:point p="75" minQ="-75" maxQ="75"/>
                </iidm:reactiveCapabilityCurve>
            </iidm:generator>
            <iidm:load id="merged_load_AMBONP31_1" loadType="UNDEFINED" p0="6.3999907380242842" q0="-10.399969207183362" bus="AMBONP31" connectableBus="AMBONP31" p="6.3999907380242842" q="-10.399969207183362"/>
        </iidm:voltageLevel>
    </iidm:substation>
    <iidm:substation id="AUDIE" country="FR" tso="RTE">
        <iidm:voltageLevel id="AUDIEP3" nominalV="63" topologyKind="BUS_BREAKER">
            <iidm:busBreakerTopology>
                <iidm:bus id="AUDIEP31" v="67.511566162109375" angle="-2.3436530551902304"/>
                <iidm:bus id="AUDIEP32" v="67.650009155273438" angle="-2.0938753851203913"/>
            </iidm:busBreakerTopology>
            <iidm:generator id="AUDIEINF" energySource="SOLAR" minP="0" maxP="0" voltageRegulatorOn="false" targetP="0" targetQ="0" connectableBus="AUDIEP31" p="-0" q="-0">
                <iidm:minMaxReactiveLimits minQ="-0.0099999997764825821" maxQ="0.0099999997764825821"/>
            </iidm:generator>
            <iidm:generator id="AUDIEP3_EOL_CHG" energySource="WIND" minP="0" maxP="0" voltageRegulatorOn="false" targetP="0" targetQ="0" connectableBus="AUDIEP31" p="-0" q="-0">
                <iidm:minMaxReactiveLimits minQ="-0.0099999997764825821" maxQ="0.0099999997764825821"/>
            </iidm:generator>
            <iidm:generator id="AUDIEP3_PV_CHG" energySource="SOLAR" minP="0" maxP="0" voltageRegulatorOn="false" targetP="0" targetQ="0" connectableBus="AUDIEP31" p="-0" q="-0">
                <iidm:minMaxReactiveLimits minQ="-0.0099999997764825821" maxQ="0.0099999997764825821"/>
            </iidm:generator>
            <iidm:generator id="AUDIEP3-GFM" energySource="WIND" minP="0" maxP="75" voltageRegulatorOn="false" targetP="0.10000000149011612" targetQ="0" connectableBus="AUDIEP31" p="-0" q="-0">
                <iidm:reactiveCapabilityCurve>
                    <iidm:point p="0" minQ="-75" maxQ="75"/>
                    <iidm:point p="75" minQ="-75" maxQ="75"/>
                </iidm:reactiveCapabilityCurve>
            </iidm:generator>
            <iidm:generator id="AUDIEIN2" energySource="WIND" minP="0" maxP="0" voltageRegulatorOn="false" targetP="0" targetQ="0" connectableBus="AUDIEP32" p="-0" q="-0">
                <iidm:minMaxReactiveLimits minQ="-0.0099999997764825821" maxQ="0.0099999997764825821"/>
            </iidm:generator>
            <iidm:generator id="AUDIEING" energySource="SOLAR" minP="0" maxP="0" voltageRegulatorOn="false" targetP="0" targetQ="0" connectableBus="AUDIEP32" p="-0" q="-0">
                <iidm:minMaxReactiveLimits minQ="-0.0099999997764825821" maxQ="0.0099999997764825821"/>
            </iidm:generator>
            <iidm:generator id="AUDIEP3_EOL" energySource="SOLAR" minP="0" maxP="11.423148155212402" voltageRegulatorOn="false" targetP="1.7134722471237183" targetQ="0" bus="AUDIEP32" connectableBus="AUDIEP32" p="-1.7134722471237183" q="0">
                <iidm:reactiveCapabilityCurve>
                    <iidm:point p="0" minQ="0" maxQ="0"/>
                    <iidm:point p="11.423148155212402" minQ="0" maxQ="0"/>
                </iidm:reactiveCapabilityCurve>
            </iidm:generator>
            <iidm:generator id="AUDIEP3_PV" energySource="SOLAR" minP="0" maxP="9.1584606170654297" voltageRegulatorOn="false" targetP="1.1905999183654785" targetQ="0" bus="AUDIEP32" connectableBus="AUDIEP32" p="-1.1905999183654785" q="0">
                <iidm:reactiveCapabilityCurve>
                    <iidm:point p="0" minQ="0" maxQ="0"/>
                    <iidm:point p="9.1584606170654297" minQ="0" maxQ="0"/>
                </iidm:reactiveCapabilityCurve>
            </iidm:generator>
            <iidm:load id="AUDIE3311" loadType="UNDEFINED" p0="2.4999959690372062" q0="-5.4999822637751148" bus="AUDIEP31" connectableBus="AUDIEP31" p="2.4999959690372062" q="-5.4999822637751148">
                <iidm:property name="VECTCodeOITransfoDistrib" value="AUDIE-Y311"/>
            </iidm:load>
            <iidm:load id="AUDIE3312" loadType="UNDEFINED" p0="2.4999959815966055" q0="-5.4999823190363983" bus="AUDIEP32" connectableBus="AUDIEP32" p="2.4999959815966055" q="-5.4999823190363983">
                <iidm:property name="VECTCodeOITransfoDistrib" value="PALEN-Y312"/>
            </iidm:load>
        </iidm:voltageLevel>
    </iidm:substation>
    <iidm:substation id="AURAY" country="FR" tso="RTE">
        <iidm:voltageLevel id="AURAYP3" nominalV="63" topologyKind="BUS_BREAKER">
            <iidm:busBreakerTopology>
                <iidm:bus id="AURAYP31" v="64.937278747558594" angle="-3.2329940577710192"/>
            </iidm:busBreakerTopology>
            <iidm:generator id="AURAYINF" energySource="SOLAR" minP="0" maxP="0" voltageRegulatorOn="false" targetP="0" targetQ="0" connectableBus="AURAYP31" p="-0" q="-0">
                <iidm:minMaxReactiveLimits minQ="-0.0099999997764825821" maxQ="0.0099999997764825821"/>
            </iidm:generator>
            <iidm:generator id="AURAYING" energySource="SOLAR" minP="0" maxP="0" voltageRegulatorOn="false" targetP="0" targetQ="0" connectableBus="AURAYP31" p="-0" q="-0">
                <iidm:minMaxReactiveLimits minQ="-0.0099999997764825821" maxQ="0.0099999997764825821"/>
            </iidm:generator>
            <iidm:generator id="AURAYP3_PV_CHG" energySource="SOLAR" minP="0" maxP="0" voltageRegulatorOn="false" targetP="0" targetQ="0" connectableBus="AURAYP31" p="-0" q="-0">
                <iidm:minMaxReactiveLimits minQ="-0.0099999997764825821" maxQ="0.0099999997764825821"/>
            </iidm:generator>
            <iidm:generator id="AURAYP3_EOL_CHG" energySource="WIND" minP="0" maxP="0" voltageRegulatorOn="false" targetP="0" targetQ="0" connectableBus="AURAYP31" p="-0" q="-0">
                <iidm:minMaxReactiveLimits minQ="-0.0099999997764825821" maxQ="0.0099999997764825821"/>
            </iidm:generator>
            <iidm:generator id="AURAYP3_PV_ES" energySource="SOLAR" minP="0" maxP="0" voltageRegulatorOn="false" targetP="0" targetQ="0" connectableBus="AURAYP31" p="-0" q="-0">
                <iidm:minMaxReactiveLimits minQ="-0.0099999997764825821" maxQ="0.0099999997764825821"/>
            </iidm:generator>
            <iidm:generator id="AURAYP3_EOL" energySource="SOLAR" minP="0" maxP="1.184723973274231" voltageRegulatorOn="false" targetP="0.17770859599113464" targetQ="0" bus="AURAYP31" connectableBus="AURAYP31" p="-0.17770859599113462" q="0">
                <iidm:reactiveCapabilityCurve>
                    <iidm:point p="0" minQ="0" maxQ="0"/>
                    <iidm:point p="1.184723973274231" minQ="0" maxQ="0"/>
                </iidm:reactiveCapabilityCurve>
            </iidm:generator>
            <iidm:generator id="AURAYP3_PV" energySource="SOLAR" minP="0" maxP="5.8507881164550781" voltageRegulatorOn="false" targetP="0.76060247421264648" targetQ="0" bus="AURAYP31" connectableBus="AURAYP31" p="-0.76060247421264637" q="-5.4210108624275222e-18">
                <iidm:reactiveCapabilityCurve>
                    <iidm:point p="0" minQ="0" maxQ="0"/>
                    <iidm:point p="5.8507881164550781" minQ="0" maxQ="0"/>
                </iidm:reactiveCapabilityCurve>
            </iidm:generator>
            <iidm:generator id="AURAYP3-GFM" energySource="WIND" minP="0" maxP="75" voltageRegulatorOn="false" targetP="0.10000000149011612" targetQ="0" connectableBus="AURAYP31" p="-0" q="-0">
                <iidm:reactiveCapabilityCurve>
                    <iidm:point p="0" minQ="-75" maxQ="75"/>
                    <iidm:point p="75" minQ="-75" maxQ="75"/>
                </iidm:reactiveCapabilityCurve>
            </iidm:generator>
            <iidm:load id="merged_load_AURAYP31_1" loadType="UNDEFINED" p0="13.299979539198297" q0="-14.299955305358358" bus="AURAYP31" connectableBus="AURAYP31" p="13.299979539198297" q="-14.299955305358358"/>
            <iidm:shunt id="AURAY3COND.11" sectionCount="1" voltageRegulatorOn="false" connectableBus="AURAYP31" q="-0">
                <iidm:property name="VECTCodeOITransfoDistrib" value="CONF6-Y413"/>
                <iidm:shuntLinearModel bPerSection="0.0037792895454913378" maximumSectionCount="1"/>
            </iidm:shunt>
        </iidm:voltageLevel>
    </iidm:substation>
    <iidm:substation id="B.EPI" country="FR" tso="RTE">
        <iidm:voltageLevel id="B.EPIP4" nominalV="90" topologyKind="BUS_BREAKER">
            <iidm:busBreakerTopology>
                <iidm:bus id="B.EPIP41" v="93.924087524414062" angle="-4.5278604668483906"/>
            </iidm:busBreakerTopology>
            <iidm:generator id="B.EPIP4-GFM" energySource="WIND" minP="0" maxP="75" voltageRegulatorOn="false" targetP="0.10000000149011612" targetQ="0" connectableBus="B.EPIP41" p="-0" q="-0">
                <iidm:reactiveCapabilityCurve>
                    <iidm:point p="0" minQ="-75" maxQ="75"/>
                    <iidm:point p="75" minQ="-75" maxQ="75"/>
                </iidm:reactiveCapabilityCurve>
            </iidm:generator>
            <iidm:shunt id="B.EPI4COND.11" sectionCount="1" voltageRegulatorOn="false" bus="B.EPIP41" connectableBus="B.EPIP41" q="-37.029502142406926">
                <iidm:shuntLinearModel bPerSection="0.0041975309140980244" maximumSectionCount="1"/>
            </iidm:shunt>
        </iidm:voltageLevel>
        <iidm:voltageLevel id="B.EPIP6" nominalV="225" topologyKind="BUS_BREAKER">
            <iidm:busBreakerTopology>
                <iidm:bus id="B.EPIP61" v="240.55622863769531" angle="-3.431696640444561"/>
            </iidm:busBreakerTopology>
            <iidm:generator id="B.EPIP6-GFM" energySource="WIND" minP="0" maxP="250" voltageRegulatorOn="false" targetP="0.10000000149011612" targetQ="0" connectableBus="B.EPIP61" p="-0" q="-0">
                <iidm:reactiveCapabilityCurve>
                    <iidm:point p="0" minQ="-250" maxQ="250"/>
                    <iidm:point p="250" minQ="-250" maxQ="250"/>
                </iidm:reactiveCapabilityCurve>
            </iidm:generator>
            <iidm:shunt id="B.EPI6COND.11" sectionCount="1" voltageRegulatorOn="false" connectableBus="B.EPIP61" q="-0">
                <iidm:property name="VECTCodeOITransfoDistrib" value="CRAON-Y411"/>
                <iidm:shuntLinearModel bPerSection="0.0015802469570189714" maximumSectionCount="1"/>
            </iidm:shunt>
        </iidm:voltageLevel>
        <iidm:twoWindingsTransformer id="B.EPIY641" r="0.30239999294281006" x="9.7439994812011719" g="0" b="0" ratedU1="225" ratedU2="90" bus1="B.EPIP61" connectableBus1="B.EPIP61" voltageLevelId1="B.EPIP6" bus2="B.EPIP41" connectableBus2="B.EPIP41" voltageLevelId2="B.EPIP4" p1="15.306480358057705" q1="-39.543665764362949" p2="-15.238846979011456" q2="41.722963468457344">
            <iidm:ratioTapChanger lowTapPosition="0" tapPosition="15" targetDeadband="0" loadTapChangingCapabilities="true" regulating="true" targetV="94.500007629394531">
                <iidm:terminalRef id="B.EPIY641" side="TWO"/>
                <iidm:step r="0" x="0" g="0" b="0" rho="1.1119999885559082"/>
                <iidm:step r="0" x="0" g="0" b="0" rho="1.0999799966812134"/>
                <iidm:step r="0" x="0" g="0" b="0" rho="1.0879600048065186"/>
                <iidm:step r="0" x="0" g="0" b="0" rho="1.0759400129318237"/>
                <iidm:step r="0" x="0" g="0" b="0" rho="1.0639100074768066"/>
                <iidm:step r="0" x="0" g="0" b="0" rho="1.0518900156021118"/>
                <iidm:step r="0" x="0" g="0" b="0" rho="1.039870023727417"/>
                <iidm:step r="0" x="0" g="0" b="0" rho="1.0278500318527222"/>
                <iidm:step r="0" x="0" g="0" b="0" rho="1.0158300399780273"/>
                <iidm:step r="0" x="0" g="0" b="0" rho="1.0038100481033325"/>
                <iidm:step r="0" x="0" g="0" b="0" rho="0.99177998304367065"/>
                <iidm:step r="0" x="0" g="0" b="0" rho="0.97975999116897583"/>
                <iidm:step r="0" x="0" g="0" b="0" rho="0.96773999929428101"/>
                <iidm:step r="0" x="0" g="0" b="0" rho="0.95576000213623047"/>
                <iidm:step r="0" x="0" g="0" b="0" rho="0.94378000497817993"/>
                <iidm:step r="0" x="0" g="0" b="0" rho="0.93181002140045166"/>
                <iidm:step r="0" x="0" g="0" b="0" rho="0.91983002424240112"/>
                <iidm:step r="0" x="0" g="0" b="0" rho="0.90785002708435059"/>
                <iidm:step r="0" x="0" g="0" b="0" rho="0.89586997032165527"/>
                <iidm:step r="0" x="0" g="0" b="0" rho="0.88388997316360474"/>
                <iidm:step r="0" x="0" g="0" b="0" rho="0.8719099760055542"/>
                <iidm:step r="0" x="0" g="0" b="0" rho="0.85993999242782593"/>
                <iidm:step r="0" x="0" g="0" b="0" rho="0.84795999526977539"/>
                <iidm:step r="0" x="0" g="0" b="0" rho="0.83597999811172485"/>
                <iidm:step r="0" x="0" g="0" b="0" rho="0.82400000095367432"/>
            </iidm:ratioTapChanger>
        </iidm:twoWindingsTransformer>
        <iidm:twoWindingsTransformer id="B.EPIY642" r="0.24960000813007355" x="9.4720001220703125" g="0" b="0" ratedU1="225" ratedU2="90" bus1="B.EPIP61" connectableBus1="B.EPIP61" voltageLevelId1="B.EPIP6" bus2="B.EPIP41" connectableBus2="B.EPIP41" voltageLevelId2="B.EPIP4" p1="15.938339231700283" q1="-40.610534605675696" p2="-15.879246830642735" q2="42.853015422177045">
            <iidm:ratioTapChanger lowTapPosition="0" tapPosition="15" targetDeadband="0" loadTapChangingCapabilities="true" regulating="true" targetV="94.500007629394531">
                <iidm:terminalRef id="B.EPIY642" side="TWO"/>
                <iidm:step r="0" x="0" g="0" b="0" rho="1.1119999885559082"/>
                <iidm:step r="0" x="0" g="0" b="0" rho="1.0999799966812134"/>
                <iidm:step r="0" x="0" g="0" b="0" rho="1.0879600048065186"/>
                <iidm:step r="0" x="0" g="0" b="0" rho="1.0759400129318237"/>
                <iidm:step r="0" x="0" g="0" b="0" rho="1.0639100074768066"/>
                <iidm:step r="0" x="0" g="0" b="0" rho="1.0518900156021118"/>
                <iidm:step r="0" x="0" g="0" b="0" rho="1.039870023727417"/>
                <iidm:step r="0" x="0" g="0" b="0" rho="1.0278500318527222"/>
                <iidm:step r="0" x="0" g="0" b="0" rho="1.0158300399780273"/>
                <iidm:step r="0" x="0" g="0" b="0" rho="1.0038100481033325"/>
                <iidm:step r="0" x="0" g="0" b="0" rho="0.99177998304367065"/>
                <iidm:step r="0" x="0" g="0" b="0" rho="0.97975999116897583"/>
                <iidm:step r="0" x="0" g="0" b="0" rho="0.96773999929428101"/>
                <iidm:step r="0" x="0" g="0" b="0" rho="0.95576000213623047"/>
                <iidm:step r="0" x="0" g="0" b="0" rho="0.94378000497817993"/>
                <iidm:step r="0" x="0" g="0" b="0" rho="0.93181002140045166"/>
                <iidm:step r="0" x="0" g="0" b="0" rho="0.91983002424240112"/>
                <iidm:step r="0" x="0" g="0" b="0" rho="0.90785002708435059"/>
                <iidm:step r="0" x="0" g="0" b="0" rho="0.89586997032165527"/>
                <iidm:step r="0" x="0" g="0" b="0" rho="0.88388997316360474"/>
                <iidm:step r="0" x="0" g="0" b="0" rho="0.8719099760055542"/>
                <iidm:step r="0" x="0" g="0" b="0" rho="0.85993999242782593"/>
                <iidm:step r="0" x="0" g="0" b="0" rho="0.84795999526977539"/>
                <iidm:step r="0" x="0" g="0" b="0" rho="0.83597999811172485"/>
                <iidm:step r="0" x="0" g="0" b="0" rho="0.82400000095367432"/>
            </iidm:ratioTapChanger>
        </iidm:twoWindingsTransformer>
        <iidm:twoWindingsTransformer id="B.EPIY643" r="0.29280000925064087" x="10.015999794006348" g="0" b="0" ratedU1="225" ratedU2="90" bus1="B.EPIP61" connectableBus1="B.EPIP61" voltageLevelId1="B.EPIP6" bus2="B.EPIP41" connectableBus2="B.EPIP41" voltageLevelId2="B.EPIP4" p1="14.960826864453017" q1="-38.445019698904417" p2="-14.898842323555028" q2="40.565365085691333">
            <iidm:ratioTapChanger lowTapPosition="0" tapPosition="15" targetDeadband="0" loadTapChangingCapabilities="true" regulating="true" targetV="94.500007629394531">
                <iidm:terminalRef id="B.EPIY643" side="TWO"/>
                <iidm:step r="0" x="0" g="0" b="0" rho="1.1119999885559082"/>
                <iidm:step r="0" x="0" g="0" b="0" rho="1.0999799966812134"/>
                <iidm:step r="0" x="0" g="0" b="0" rho="1.0879600048065186"/>
                <iidm:step r="0" x="0" g="0" b="0" rho="1.0759400129318237"/>
                <iidm:step r="0" x="0" g="0" b="0" rho="1.0639100074768066"/>
                <iidm:step r="0" x="0" g="0" b="0" rho="1.0518900156021118"/>
                <iidm:step r="0" x="0" g="0" b="0" rho="1.039870023727417"/>
                <iidm:step r="0" x="0" g="0" b="0" rho="1.0278500318527222"/>
                <iidm:step r="0" x="0" g="0" b="0" rho="1.0158300399780273"/>
                <iidm:step r="0" x="0" g="0" b="0" rho="1.0038100481033325"/>
                <iidm:step r="0" x="0" g="0" b="0" rho="0.99177998304367065"/>
                <iidm:step r="0" x="0" g="0" b="0" rho="0.97975999116897583"/>
                <iidm:step r="0" x="0" g="0" b="0" rho="0.96773999929428101"/>
                <iidm:step r="0" x="0" g="0" b="0" rho="0.95576000213623047"/>
                <iidm:step r="0" x="0" g="0" b="0" rho="0.94378000497817993"/>
                <iidm:step r="0" x="0" g="0" b="0" rho="0.93181002140045166"/>
                <iidm:step r="0" x="0" g="0" b="0" rho="0.91983002424240112"/>
                <iidm:step r="0" x="0" g="0" b="0" rho="0.90785002708435059"/>
                <iidm:step r="0" x="0" g="0" b="0" rho="0.89586997032165527"/>
                <iidm:step r="0" x="0" g="0" b="0" rho="0.88388997316360474"/>
                <iidm:step r="0" x="0" g="0" b="0" rho="0.8719099760055542"/>
                <iidm:step r="0" x="0" g="0" b="0" rho="0.85993999242782593"/>
                <iidm:step r="0" x="0" g="0" b="0" rho="0.84795999526977539"/>
                <iidm:step r="0" x="0" g="0" b="0" rho="0.83597999811172485"/>
                <iidm:step r="0" x="0" g="0" b="0" rho="0.82400000095367432"/>
            </iidm:ratioTapChanger>
        </iidm:twoWindingsTransformer>
    </iidm:substation>
    <iidm:substation id="B.GUE" country="FR" tso="RTE">
        <iidm:voltageLevel id="B.GUEP6" nominalV="225" topologyKind="BUS_BREAKER">
            <iidm:busBreakerTopology>
                <iidm:bus id="B.GUEP61" v="237.52114868164062" angle="-1.4552506700117891"/>
                <iidm:bus id="B.GUEP62" v="237.52114868164062" angle="-1.4552506700117891"/>
            </iidm:busBreakerTopology>
            <iidm:generator id="B.GUE.TG1" energySource="WIND" minP="5" maxP="240" voltageRegulatorOn="true" targetP="48" targetV="235" bus="B.GUEP61" connectableBus="B.GUEP61" p="-48" q="87.5">
                <iidm:reactiveCapabilityCurve>
                    <iidm:point p="5" minQ="-87.5" maxQ="80"/>
                    <iidm:point p="240" minQ="-87.5" maxQ="80"/>
                </iidm:reactiveCapabilityCurve>
            </iidm:generator>
            <iidm:generator id="B.GUEP6-GFM" energySource="WIND" minP="0" maxP="250" voltageRegulatorOn="false" targetP="0.10000000149011612" targetQ="0" connectableBus="B.GUEP61" p="-0" q="-0">
                <iidm:reactiveCapabilityCurve>
                    <iidm:point p="0" minQ="-250" maxQ="250"/>
                    <iidm:point p="250" minQ="-250" maxQ="250"/>
                </iidm:reactiveCapabilityCurve>
            </iidm:generator>
            <iidm:generator id="B.GUE.TG2" energySource="WIND" minP="5" maxP="240" voltageRegulatorOn="true" targetP="48" targetV="235" bus="B.GUEP62" connectableBus="B.GUEP62" p="-48" q="87.5">
                <iidm:reactiveCapabilityCurve>
                    <iidm:point p="5" minQ="-87.5" maxQ="80"/>
                    <iidm:point p="240" minQ="-87.5" maxQ="80"/>
                </iidm:reactiveCapabilityCurve>
            </iidm:generator>
        </iidm:voltageLevel>
    </iidm:substation>
    <iidm:substation id="B.SEP" country="FR" tso="RTE">
        <iidm:voltageLevel id="B.SEPP3" nominalV="63" topologyKind="BUS_BREAKER">
            <iidm:busBreakerTopology>
                <iidm:bus id="B.SEPP31" v="64.348091125488281" angle="0.51032009179758853"/>
            </iidm:busBreakerTopology>
            <iidm:generator id="B.SEPP3-GFM" energySource="WIND" minP="0" maxP="75" voltageRegulatorOn="false" targetP="0.10000000149011612" targetQ="0" connectableBus="B.SEPP31" p="-0" q="-0">
                <iidm:reactiveCapabilityCurve>
                    <iidm:point p="0" minQ="-75" maxQ="75"/>
                    <iidm:point p="75" minQ="-75" maxQ="75"/>
                </iidm:reactiveCapabilityCurve>
            </iidm:generator>
            <iidm:load id="B.SEP3TR312" loadType="UNDEFINED" p0="0" q0="0" bus="B.SEPP31" connectableBus="B.SEPP31" p="0" q="0">
                <iidm:property name="VECTCodeOITransfoDistrib" value="CZEGE-Y312"/>
            </iidm:load>
        </iidm:voltageLevel>
    </iidm:substation>
    <iidm:substation id="B.SSBP6_site" name="undefined" country="FR" tso="RTE">
        <iidm:voltageLevel id="B.SSBP6" nominalV="225" topologyKind="BUS_BREAKER">
            <iidm:busBreakerTopology>
                <iidm:bus id="B.SSBP61" v="235.00003051757812" angle="-4.5594641790248627"/>
            </iidm:busBreakerTopology>
            <iidm:generator id="B.SSBEA1" energySource="WIND" minP="0" maxP="263" voltageRegulatorOn="true" targetP="52.599998474121094" targetV="235" bus="B.SSBP61" connectableBus="B.SSBP61" p="-52.599998474121094" q="21.177887187703163">
                <iidm:reactiveCapabilityCurve>
                    <iidm:point p="0" minQ="-70" maxQ="75"/>
                    <iidm:point p="263" minQ="-87.5" maxQ="80"/>
                </iidm:reactiveCapabilityCurve>
            </iidm:generator>
            <iidm:generator id="B.SSBEA2" energySource="WIND" minP="0" maxP="263" voltageRegulatorOn="true" targetP="52.599998474121094" targetV="235" bus="B.SSBP61" connectableBus="B.SSBP61" p="-52.599998474121094" q="21.177887187703163">
                <iidm:reactiveCapabilityCurve>
                    <iidm:point p="0" minQ="-70" maxQ="75"/>
                    <iidm:point p="263" minQ="-87.5" maxQ="80"/>
                </iidm:reactiveCapabilityCurve>
            </iidm:generator>
            <iidm:generator id="B.SSBP6-GFM" energySource="WIND" minP="0" maxP="250" voltageRegulatorOn="false" targetP="0.10000000149011612" targetQ="0" connectableBus="B.SSBP61" p="-0" q="-0">
                <iidm:reactiveCapabilityCurve>
                    <iidm:point p="0" minQ="-250" maxQ="250"/>
                    <iidm:point p="250" minQ="-250" maxQ="250"/>
                </iidm:reactiveCapabilityCurve>
            </iidm:generator>
        </iidm:voltageLevel>
    </iidm:substation>
    <iidm:substation id="B.THO" country="FR" tso="RTE">
        <iidm:voltageLevel id="B.THOP4" nominalV="90" topologyKind="BUS_BREAKER">
            <iidm:busBreakerTopology>
                <iidm:bus id="B.THOP41" v="93.954238891601562" angle="-4.5754664584765559"/>
            </iidm:busBreakerTopology>
            <iidm:generator id="B.THOP4_PV_ES" energySource="SOLAR" minP="0" maxP="0" voltageRegulatorOn="false" targetP="0" targetQ="0" connectableBus="B.THOP41" p="-0" q="-0">
                <iidm:minMaxReactiveLimits minQ="-0.0099999997764825821" maxQ="0.0099999997764825821"/>
            </iidm:generator>
            <iidm:generator id="B.THOP4_PV" energySource="SOLAR" minP="0" maxP="0.14599999785423279" voltageRegulatorOn="false" targetP="0.018980000168085098" targetQ="0" connectableBus="B.THOP41" p="-0" q="-0">
                <iidm:reactiveCapabilityCurve>
                    <iidm:point p="0" minQ="0" maxQ="0"/>
                    <iidm:point p="0.14599999785423279" minQ="0" maxQ="0"/>
...